DR.—Just returned from B.......Do let me see
P.W
ou soon.—E.
TELEMACHA! Telemacha
L.D.—Your LETTER RECEIVED and answered.
For heaven's sake appoint a meeting with me without an hour's
lay.—A.B.
W. W. is reminded that LETTERS addressed, as
he desires, to the Post-office, Charing-cross, will be OPENED
and RETURNED to the writer.
THE SECRETARY of the FRIENDS of the
CLERGY CORPORATION begs thankfully to ACKNOW¬
LEDGE the RECEIPT of PARCELS of CLOTHING from M. T. and
others. Such help is much needed, and may be forwarded to the offices
of the Corporation, 4, St. Martin's-place, London, W. C.
MISSING, since Tuesday, the 1st inst., an
ELDERLY GENTLEMAN, 68 years of age, 5 ft. 5 in, in height,
thin spare figure, fair complexon, small grayish whiskers, gray hair,
and brown eyes; was dressed in a black suit of clothes, with white
necktie, and wore a gold watch and chain, with large seal attached,
engraved with initials S. J. M. Information to be given to Mr. Pollaky,
private inqury office, 13, Paddington-green.
ANN MARTIN, whose maiden name was Ann
Gray, and who was born at Gretton, in Northamptonshire, and
married to Joseph Vincent Martin, at St. George's Church, Hanover¬
square, in or about the year 1833, is requested, if living, to COMMU¬
NICATE with Messrs. Boys and Tweedies, solicitors, 5, Lincoln's-inn¬
fields, London. Any person furnishing the said Messrs. Boys and
Tweedies with proof of the death of the said Ann Martin (if she be

FIFTY POUNDS REWARD.—Whereas WAR¬
RANTS have been granted by the Magistrates of London and
af
sex o behalf of
B, sociated Bankers and others, for the
APPREHENSION of EDWARD LAWRENCE LEVY, late of Bow¬
street and Henrietta-street, Covent-garden. The above reward will be
paid for such INFORMATION as may lead to his arrest being given
to the Detective Police Departments, Old Jewry or Scotland-yard,
London.
IF MATTHEW BARTON, who left his home,
No. 27, Hatton-garden, London, on the 1st of January, 1849 (being
then of the age of 19 years), and has not been heard of by his family
since, will apply to Messrs. James, Curtis, and James, of 23, Ely¬
tanaee London, solicitors, he will HEAR of SOMETHING to his
ADVANTAGE, and any person able to give information which may
lead to the discovery of what has become of the above named Matthew
Barton, is earnestly requested to communicate the same immediately
to the above-mentioned solicitoe,
TO PARISH CLERKS and others.—A REWARD
of THREE POUNDS will be given to any person FINDING the
REGISTER of the BURIAL of MARIA DELAHUNT (whose
maiden name was Woodward), and who in 1837 resided with her
husband, Thomas Delabunt, hairdresser, in Portland-place, Commer¬
cial-road, and is supposed to have died some years afterwards in the
east of London; or a similar reward will be given to any person who
shall afford proof of her being living, together with correct information
as to her present residence. Application to be made to Mr. D. E.
Forbes, solicitor, 34, Bedford-row, W.C.
LOST or MISLAID, a PEARL OPERA-GLASS,
at the Pelytechnic, on Friday evening last. The finder shall re¬
ceive ONE GUINEA REWARD by leaving the same at 9, Craven¬
street, Charing-cross.
LOST, between Gluckstadt and Hamburg, HULL
BRANCH of the BANK of ENGLAND BILL, No. A.8680, dated
Hull, November 11, 1865. Payment of which is stopped. The finder
will be REWARDED on applying to Henr. E. Voigt, Kingston-cham¬
bers. Hull.
LOST, in a CAB, on the evening of the 11th instant,
a BLACK RAILWAY TRAVELLING BAG. Whoever will
bring the same to 8, Lower Belgrave-street, Eaton-square, shall receive
TEN SHILLINGS REWARD.
TEN SHILLINGS REWARD.—KEYS LOST, on
Tuesday afternoon, in Cornhill—six or seven keys, on chain ring.
to A. H. Baily and Co., 3, Royal Exchange-buildings.
TO CABMEN in LONDON.—LOST, in a Hansom,
on Friday, April 13th, a ROLL of PLANS and PAPERS, en¬
dorsed Bagot, Lianelly. ONE GUINEA REWARD. Apply to the
Manager, Salisbury-square Hotel, London.
FIVE SHILLINGS REWARD.—LEFT, in a Han¬
som Cab, which took a lady and gentleman from the Euston to
Charing-cross, on the afternoon of Thursday last, a BROWN¬
PAPER PARCEL, containing some photographs. Whoever will bring
the same to Messrs. Huffell, 10, Grosvenor-street, Bond-street, shall
receive the above reward.
TO CABMEN.—LEFT in a CAB, that took a gen¬
tleman from Long's Hotel to the Charing-cross Railway Station,
on Saturday, May 12th, between 7 and 7.30 a.m., a PURSE, containing
a Bank of England £10 note, the payment of which has been stopped.
Whoever has found the above and will bring it to Long's Hotel, Bond¬
street, shall receive TWO POUNDS REWARD.
TWO GUINEAS REWARD.—To Cabmen and
others.—Supposed to have been LEFT in a CAB, that had taken a
lady and child on Thursday, May 10th, from 10, Hyde-park-street, W.,
to 39, Welbeck-street, about 3 o'clock, a GOLD CHAIN, locket, gold
eye-glasses attached; engraved on locket, Glenborodale. Whoever
will bring the same to 10, Hyde-park-street, W., shall receive the
above reward.
ONE POUND REWARD.—LOST, on Wednesday,
May 9, in the Foxley-road, a small BLACK and TAN TOY
TERRIER BITCH, aged six months, with light and long ears. Who¬
ever will return the same to Dr. Watts, 1, Winterslow-place, Vassall¬
road, Brixton, S., shall receive the above reward.
CRYSTAL PALACE.—LOST, on the evening of
the9th (supposed in the grounds), a GOLD LOCKET, containin
two portraits, and with the initials "L.P." on one side and "J. F."
the other. Whosoever will bring the same to the Lost Property office,
Crystal Palace, shall receive ONE POUND REWARD.
FIVE POUNDS REWARD.—LOST, on Friday
afternoon, the 11th inst., between Aldersgate-street and King's¬
cross Station, a POCKETBOOK, containing various memoranda and
two Bank of England notes: one for £10, number 58604, March 8th,
1866; and one £5, number 8953, March 14th, 1866. Both stopped.
Apply to G. H. R., 3, Guilford-place, Russell-square, W.C.
TO BANKERS, Billbrokers, and others.—LOST,
in transit through the post, THREE BILLS of EXCHANGE,
drawn and endorsed by Harrison and Smith, 5, Angel-street, E.C.,
payable three months after date—No. 724, for £59 13s., dated April
10th, and accepted by Thos. Thwaite and Co., Glasgow; No. 726, for
£156 13s., dated 10th April, and accepted by Bollen and Tidswell, Lon¬
don; No. 727, for £681, dated 16th April, and accepted by Higgins,
Eagle, and Hutchinson, London. Payment has been stopped.
BANK of ENGLAND.—Unclaimed Stock.—Appli¬
cation having been made to the Governors of the Bank of England
to direct the re-transfer from the Commissioners for the Reduction of
the National Debt of the sum of £242 2s. 5d. New 3 per Cent.
Annuities, heretofore standing in the names of STEPHEN TURNER,
of Bath, apothecary, deceased, and JOHN HARRIS, of Exeter,
surgeon, deceased, and which was transferred to the said Commissioner?
in consequence of the dividends thereon having remained unclaimed
since the 10th October, 1855;—Notice is hereby given that, on the expira¬
tion of three months from this date, the said Stock will be Transferred,
and the Dividends thereon paid to John William Harris, adminis¬
trator of John Harris, who was the survivor, who has claimed the
same, unless some other claimant shall sooner appear and make out
his claim thereto.
RE THOMAS REDWAY, Bankrupt.—All CREDI¬
TORS OPPOSED to the pending ARRANGEMENTS are re¬
spectfully solicited to COMMUNICATE with Messrs. J. G. Marzetti.
and Sons, of 1, Vine-street, Minories, before the next General Meeting
of Creditors, appointed to take place at the New London Inn, in the
city of Exeter, on Friday, the 18th inst.
THAMES CONSERVANCY.—Notice is hereby
given, that it is the intention of the Conservators of the River
Thames to ERECT a STEAM-BOAT PIER or LANDING-PLACE in
a position abutting on the towing-path, near the toll-house at Kew, in
the parish of Kew, in the county of Surrey, for the purpose of landing
from and embarking to steam vessels.
E. BURSTAL, Secretary.
Thames Conservancy-office, 41, Trinity-square, London,
May 11, 1866.
THE QUEEN's CONCERT ROOMS, Hanover¬
square : Proprietor, ROBERT COCKS.—The nobility, gentry,
and the public are respectfully informed that the following ENGAGE¬
MENTS have been entered into for CONCERTS, Meetings, and
Entertainments in this magnificent suite of rooms during May and

THE QUEEN's CONCERT ROOMS, Hanover¬
square.—The PHILHARMONIC SOCIETY's FIFTH CON¬
CERT, THIS EVENING (Monday), May 14, at 8 p.m.
CHE QUEEN's CONCERT ROOMS.—The
FOREIGN AID SOCIETY's MEETING, To-morrow (Tues¬
May 15, at 2.30 p.m.
THE QUEEN's CONCERT ROOMS.—The IRISH
SOCIETY's MEETING, Thursday, May 17, at 2.30 p.m.
THE QUEEN's CONCERT ROOMS.—Miss ST.
CLAIR's FULL DRESS SOIREE, Thursday, May 17.
THE QUEEN's CONCERT ROOMS.—The
LADIES' SANITARY ASSOCIATION CONVERSAZIONE.
ening, Friday, May 18.
CHE QUEEN's CONCERT ROOMS. —Miss
ILMER BLAKE's PRIVATE PARTY, Saturday, May 19.
THE QUEEN's CONCERT ROOMS.—Miss
LOUISA VINNING's GRAND EVENING CONCERT, Mon¬
day, May 21, at 8 p.m.
CHE QUEEN's CONCERT ROOMS.—Miss ARM¬
STRONG's GRAND EVENING CONCERT, Wednesday,
May 23, at 8 p.m.
THE QUEEN's CONCERT ROOMS.—Mile. ZIM¬
MERMANN's SECOND PIANOFORTE RECITAL, at 3 p.m.,
Bursday, May 24.
THE QUEEN's CONCERT ROOMS.—Miss MAR¬
TORELLI's GRAND EVENING CONCERT, Thursday,
CHE QUEEN's CONCERT ROOMS. —Mr.
CHARLES GARDNER's MATINEE MUSICALE, Saturday,

CHE QUEEN's CONCERT ROOMS. —Mme.
PUZZI's (ANNUAL) GRAND MORNING CONCERT, at
p.m. precisely, May 28th.
THE QUEEN's CONCERT ROOMS.—The PHIL¬
HARMONIC SOCIETY's SIXTH CONCERT, Monday,
ay 28.
THE QUEEN's CONCERT ROOMS.—MEETING
of the SOCIETY for TEACHING the BLIND to READ, at
0 p.m., Tuesday, May 29.
CHE QUEEN's CONCERT ROOMS. —The TEM¬
PERANCE LEAGUE ASSOCIATION's CONVERSAZIONE.

THE QUEEN's CONCERT ROOMS.—Miss STAB¬
BACH's GRAND EVENING CONCERT, Wednesday, May 30,
THE QUEEN's CONCERT ROOMS.—Mr. E.
PAUER's MATINEE MUSICALE, at 3 p.m., Friday, June 1.
THE QUEEN's CONCERT ROOMS.—Miss ST.
CLAIR's SECOND FULL-DRESS SOIREE, Friday, June 1.
THE QUEEN's CONCERT ROOMS. — Mr.
HAROLD THOMAS's MATINEE MUSICALE, at 3 p.m.,
Monday, June 4.
THE QUEEN's CONCERT ROOMS.—Miss MINA
POOLE's GRAND EVENING CONCERT, at 8 p.m., Monday,
THE QUEEN's CONCERT ROOMS. —Miss
FYNE'S GRAND EVENING CONCERT, Tuesday, June 5.
THE QUEEN's CONCERT ROOMS. —Mlle.
ZIMMERMANN's THIRD PIANOFORTE RECITAL, at 3
p.m., Thursday, June 7.
THE QUEEN's CONCERT ROOMS.—Mr. W. G.
CUSINS GRAND MORNING CONCERT, Friday, June 8.
CHE QUEEN's CONCERT ROOMS.—The
WANDERING MINSTRELS' and MORAY MINSTRELS'
GRAND EVENING CONCERT, Saturday, June 9.
THE QUEEN's CONCERT ROOMS.—Mlle.
MATHILDE MARTIN's MATINEE MUSICALE, Monday,
June 11. The Philharmonic Society's Seventh Concert, Monday,
THE QUEEN's CONCERT ROOMS.—Mr. F.
BERGER and Mme. BERGER-LASCELLES' MATINEE
MUSICALE, at 2 p.m. Tuesday, June 12.
THE QUEEN's CONCERT ROOMS.—Mr. J. F.
BARNETT's GRAND EVENING CONCERT, at 8 p.m., Tues¬
day, June 12.
THE QUEEN's CONCERT ROOMS. —Mr.
DEACON's MATINEE MUSICALE, Wednesday, June 13.
THE QUEEN's CONCERT ROOMS.—Mr. ELLIS
ROBERTS GRAND EVENING CONCERT, Friday, June 22.
CHE QUEEN's CONCERT ROOMS.—The PHIL¬
HARMONIC SOCIETY's EIGHTH CONCERT, Monday,
PPLICATIONS for the few remaining DATES to
be made to Mr. FISH, at the Rooms; Robert Cocks, pro¬
or to Messrs. Robert Cocks and Co., 6, New Burlington-st., W.
WITZERLAND.—A clergyman, starting early in
June for a few weeks tour in Switzerland, will be happy to take
CHARGE of a YOUNG GENTLEMAN. Address K. L. P., Messrs.
Rivington's, 3, Waterloo-place, London.
SUMMER TOUR in SWITZERLAND.—A gentle¬
man, thoroughly acquainted with the country, is desirous of taking
CHARGE of a few YOUNG GENTLEMEN. Terms moderate. Ad¬
dress to F. B. G., care of Messrs. D. Nutt and Co., 270, Strand, Lon¬
don; or Villa Massa. 3. Mentone, France.
