TELEMACHA.
ADVENT SUNDAY, and I cannot come.
and W. will FORGIVE and FORGET ALL
à.

 and B.—Pray relieve the anxiety I feel to know
that all is well, by making some sign
NOTICE.—f the GENTLEMEN who called on
Samuel Martin, in Spitalfields-market, INQUIRING for the
FAMILY of LEWIS, will COMMUNICATE with Thomas Dent, of
No. 6, Tyrrell's-place, Tyssen-street, Bethnal-green, they will receive
the required information.
WILLIAM HUGH DENNIS LEFT his EM¬
PLOYMENT, in Tottenham-court-road, on October 17th, 1865.
Any one giving information as to his present address to James Shool¬
bred and Co., 155, Tottenham-court-road, or to the Inspector of Police,
at St. Giles' Station, will be REWARDED. — December 1, 1865,
TOWNLEY.—If this gentleman, who travelled with
a fellow-passenger, on or about the 13th October, intending to
alight at Barnes, but going two stations beyond, will SEND an
ADDRESS where a letter may reach him, to Alpha, post-office, Queen's
Elm, S.W., it will be a great favour. The meeting for Covent-garden
on the Monday following was impossible through iliness
JUDITH
PHYI IPPS,
tu nhter of T. Philps,

a  Milford, county
broke.—

T ED th
NAME and ADDRESS of the a ve. S .

to a e e sen
travelling this summer on the G.W. R. A tall, he.
somelady, about 45
a s of age; hair very white, arranged à la Ma

formation respecting herewe ae.
donv, if a e en
 their
names and ages—to be inserted  e ede
"William," in
South Austra¬
lan

of April, 1866, will prove of great advan¬


rchildren.
THE Rev. J. M. VAUGHAN begs gratefully to
ACKNOWLEDGE the following DONATIONS towards the
required sum for enlarging St. John's Mission Ragged School, St.
George's-in-the-East, which re-opens on the 11th inst. £109 still re¬
mains to be raised:—W. Dent, Esq., £5; Rev. Alex. J. D. D'Orsey,
£1 1s.; J. R., 10s.; S. C. B., 5s.—33, Nassau-place, Commercial-road
east
CHARING-CROSS HOSPITAL, West Strand,
W.C.—The COMMITTEE thankfully ACKNOWLEDGE the re¬
ceipt, through the donation b
e t e e m ot
of November, of £3 13s. 3d.	HENRY WOOLCOTT, Secretary.
RETHNAL-GREEN DISPENSARY.—Rev. E.
Coke, St. James's Beth 
to inform his numerous
scribers that the FOUNDATION STONE will be LAID by R.
CULLING HANBURY, Esq., M.P., Dec. 6th, 12 o'clock, Pollard-row.
GRATEFUL THANKS for CHARITABLE AID

LITTLE CHILDREN.—The Secretary of
the ROYAL INFIRMARY for CHILDREN and WOMEN, Water¬
loo-bridge-road, gratefully ACKNOWLEDGES the following CON¬
TRIBUTIONS:—Postage stamps from E. S. for the Poor, Sick Chil¬
dren, 7s. : A Thank-offering from Z., 10s.; H. R., 2s. 6d.—Offices,
No. 180 Waterloo-bridge-road, S.
LOST, a BLACK RETRIEVER DOG. Answers
to the na e e ae e,
Whoever will bring the same to
Dudley-house, Park-lane, shall be handsomely REWARDED.
LOST, on Saturday evening, about 6 o'clock, at the
front door of Thomas's Hotel, Berkeley-square, a BROWN
SABLE FUR BORA
Whoever will bring it to E. C., at the above
hotel, shall receive ONE POUND REWARD.
LOST, a WARRANT, for five hhds, wine, No.
41,476, by Concordia, Nos. of casks 4-8. Whoever will deliver
said warrant to T. W. Godson, 25, Eastcheap, shall be REWARDED.
Stopped at the bonded warehouse.
LOST, a LONDON DOCK WARRANT for one
butt wines, No. C 30167, ex Gibraltar from Cadiz, entered per
Walter, February, 1865, marked L with VSP under 40. Whoever wi
the
Batet to F. Y., 155, Fenchurch-street, E.C., shall be RE¬
WARDED.
LOST, in a CAB, which put down at the Oxford and
Cambridge Club on Tuesday evening last, 28th inst., at 5 p.m.
an OPERA-GLASS, with strap. Maker, "Perfect," of Ryde. TEN
SHILLINGS REWARD will be given on application to the porter at
the club.
LOST, TW.
A.BOOKS, wrapped in brown paper,
without address. Left in a third class carriage on the London,
Chatham, and Dover Railway, on the 25th of last month. Any person
having found the same, or will give
info
ion as will lead to the
te e ery ehe l l b ed
EWARDED. Apply to J. T. Morgan,
street, E.

DOG LOST (TE
SHILLINGS REWARD)—a
Brown Retrie
white spot on breast; two years old. To
be taken to Mr. Garner, 315, Fulham-road.
THREE POUNDS REWARD.—LOST, supposed
in a cab, between Westminst
Cornwall-road, Bayswater,
about 5 Saturday afternoon, a CLOAK. Whoever will return it to
General Stevenson, 30, Cornwall-road, shall receive the above reward.
TWO POUNDS REWARD.—LOST, on Thursday
evening, November 30, a BLACK CURLY RETRIEVER, small
white mark on the chest; had on leather
ol a  wit
nameand ad¬
dress. Whoever brings the same to 39, Harewood-square, shall receive

TO CABMEN.—LEFT in a Hansom CAB, taken

t Euston Station, on Friday evening, 1st inst.,
a BLACK FROCK COAT, with
taie oth waistcoat in one of the e
pockets. TEN SHILLINGS REWARD will be paid on delivery of
the same to Mr. Robinson, tailor, Bedford Hotel, Covent-garden.
TO HANSOM CABMEN.—LEFT in CAB, hired
between Trafalgar-square and 2, Leadenhall-street, on Tuesd
p.m., a small COURIER BAG. A REWARD of FIFTEEN
SHILLINGS will be given for the same, and contents, on delivery to
Mr. Dodd, 3, St. Martin's-place, Trafalgar-square.
ONE POUND REWARD.—LOST, Nov. 23d, in
Connaught-t
are, a HITE CUBA DOG, blind in one eye, 10
years old. Name, "Floss." The above reward will be given to any
one bringing the same to 14, Connaught-square, W.
ONE POUND REWARD.—STRAYED from De¬
vonshire-place, on Sunday morning, a WHITE BITCH (Maltese
breed). The above reward will be paid on its being taken to McBean
and Son's, Devonshire-street, W.
OPERA GLASS LEFT in a CAB, which took a
gentleman from St. James's-street to the Strand on Thursday
evening last. ONE POUND REWARD, if taken to the porter of the
Conservative Club, St. James's-street.
FIVE POUNDS REWARD.—LOST, on Thursday
afternoon, between Oxford-street, Notting-hill, and Westbourne¬
terrace, a GOLD WATCH, blue enamelled, studded with diamonds
and attached to a small chain, with a key and whistle. Whoever will
take the same to 13, Chepstow-villas west, Bayswater, shall receive the
above geward.
FOUND, a gentleman's CARRIAGE DOG, spotted.
If not owned in six or seven days will be SOLD to defray expenses.
—No. 43, Primrose-hill, Salisbury-square, city.
FOUND, Nov. 25, a LIVER-COLOUR RE¬
TRIEVER. If not owned in seven days will be SOLD to pay
expenses. — W., 10, Park-terrace, Regent's-park.
FOUND, near the Portl and-road Railway Station,
on Thursday, Nov. 23, a GOLD LOCKET, with photographs.
It will be returned to the owner on description and payment of adver¬
tisement. Apply, by letter, B. R., post-office, Brewer-street, Golden¬
square.
NEXT of KIN (important —never before published),
—A classified and descriptive INDEX (of 16,000 names) to AD¬
VERTISEMENTS for NEXT of KIN, Chancery heirs, legatees, and
unclaimed money, from 1700 to 1865, also of British subjects who have
died intestate in the colonies, sent post free for 30 stamps. Address
Mr. CULLMER. 6, Holland-street, Clapham-road, London, S.

IN Her MAJESTY's COURT for DIVOP
CE and
EA  ,
MONIAL CAUSES.  J o.
ormer
se
of Wincanton, in the county of Some.
iewe.
but late of Rise e eae

bunty of Monmon
Take notice that a CITATION,
bear.
date
h 1t ,
of July, 1865, has
se d der th e e



FE


belYoun,
of Sruton, in the county
Somerset.

s
the said Court within eight days after service
thereot, then:


said Court.

for a dissolution of his marriage with Emm.

citati
nin

th in th t a
to your so doing the
said Court wil
eisaid p
te e e e ar.
ti on proved in due course

ton oun e sene e e e your absence.

nhe . Dated this 7th day of November, 1865.
A. F. BAYFORD. Registrar.
CHILTON,
URTON, YEATES, and HART, 25,
an¬
or e ene, o
aon, d
olicitors
the said Joel Young.
IN Her MMASEST
ACOURT for DIVORCE
nd
MATRIMONIAL CAUSES.—TO AL e
D GEORGE JEREMY,

aoen e etion-street, Clorkenwell, in th e co e
fiddlesex.—
take

tiering date the 10th day o
uly,
is.
ahas iss t eind


inoree and

la uses, at t e instance of John Peter Featherston, o
of
ses

tohe i ca, citing you to appea


th in etig t d ays of servie
tiereof,th

answer his petition filed in the said
ourt, priayin
for a dissolution of
his marriage with Emma Fe.
te rston, and that such citati
CO.
tained an intimation that, in default of your so doing, the Court will

the said petiti.
boroved in due course of law, and to

eiene tene th

nee
twithstanding. —Date.
th es a y of November, 1863.
A. F. BAYFORD, Registrar.

CEOLE, Solicitors
Petitioner, 36, Essex-street,
rn
W.C.
WORST
RORT
METROOE
OERAUADRI
DISTRICT.
Strand Union.—I, the under
1. ed, J. H. M.
chiner, andito o f t.

te et t e hereby give notice, that
ees
the AUDIT of the ACCOUNTS of the STRANI
UNION, and of the e,
isehes te e co n ine
(and mentioned at the

tie o t e al ioye
ended the 2 th of September 1866.
to commence on Tuesday, the 19th day of De
ber instant, at 10
Weod
in e o e
at the Strand Union office, Bow-street, when
and where all persons who
tae e bound to account at d
and
are
ctenirede to at e,
aoe iei i iit all books, docume

tuechers, containin
crelating to the
ounts o to e
ties assessed
for, and applicab e t
por. —Datedt
et do

December,

OESE
J. H. N
ER, Distriet .
ditor.
arishes comprised in the
above named
"iont—S

Clement Danes:

Baptist, Savoy; St. Mary-le-Strand; St.
Paul, 

bvent-garden.
8.
TO the S
Sete n.
ESHA.
t of 
pro¬

osed ENGLISH PETROLEUM and MINING COMPANY
tn.

information has been received
eses
American mall to th e ef e d
the 18th ult.
WOR
Ia  e   
within 30 rods of the e er oy.
te e e oe
e ea ain
e force o t e g as was
great as to throw the water 100 feet high.—

CHAR
LOMEROY BUTTON, Nos. 142 and 143, Che
sei e,
London, Dec. 4, 18
FIRE in LEICESTER-SQUARE.—JNO. WARD,
invalid chair manufacturer, &c., begs to inform the nobility and
Tae ry
at his business is carried on at No. 12, Leicester-place, until
the Saville-house premises are rebuilt
INQUIRIES.—Messrs. FORRESTER and GOD¬
DARD (late principal Police Officers at the Mansion-house, city of
London, and the Public-office Bow-street), undertake important and
confidential INQUIRIES, in England or abroad.—Offices, 8, Danes'¬
inn, St. Clement's, Sotrn.
NOTICE.—C. EDWARDS, Wax Model Doll Maker,
40, Goodge-street. Tottenham-court-road, respectfully informs the
public that he has NO CONNEXION with any other SHOP or PER¬
SON of the same name, the above address being where his business has
been carried on for many years.—40, Goodge-street, Tottenham-court-rd.
R.
PICK's LECTURES
OROI 
noend
  G
AGE.—A PRIVATE CLASS
TMEMORY (as taught
at University and King's College wil et.
Wet.
sdays, at 3 o'clock.
A Course of Twelve Lectures

man aee
ing to

a in o-morrow, Decembe


The French Course at 7 o'clock. Fees:
Boory ourse, £1 1s.

Two Languages, £3 3s.—6, r.
aston-street.,
ort¬

SOUTH-EASTER,
INDNEUNESEOEIEA EE
XHIBI¬
TION Royal Hospital Greenwich.—THIS EVENING, Dec. 5,
a LECTURE will be delivered by JAMES GLAISHER, Esq., F.R.S.,
on the Balloon, in which he will give an interesting account of his own
ascents and results. To commence at 7 o'clock. Orchestral and other
musical entertainments during the week.
SMITHFIELD CLUB CATTLE SHOW, Agricul¬
tural-hall.—OPEN Monday, December 11. Admission first day, 5s.
CATTLE SHOW, Agricultural-hall.—The SMITH¬
FIELD CLUB CATTLE SHOW contains an epitome of the best
BRITISH LIVE STOCK, in cattle, sheep, and pigs. Admission—
Monday, after 2 o'clonk, 5s.; Tuesday, Wednesday, and Thursday, 1s.
SMITHFIELD CLUB CATTLE SHOW, Agricul¬
tural-hall.—In CATTLE: Short-horns, Herefords, Devons, High¬
landers, Galloways, Irish and Welsh blacks, half breds. In Sheep:
Leicesters, South Downs, Cotswolds, Lincolns, Shropshire Downs,
Hampshire Downs, West County Downs, Oxford Downs, and cross¬
breds. In Pigs; large, medium, and small, white, black, and black
and white, bacon hogs, and small porkers from all counties.
SMITHFIELD CLUB CATTLE SHOW, Agricul¬
tural-hall.—CHEAP EXCURSION TRAINS and RETURN
TICKETS to London. See time tables of the railways.
SMITHFIELD CLUB SHOW, Agricultural-hall,
December 11th, 12th, 13th, 14th.—J. B. BROWN and Co., stand
117, offices 18, Cannon-street, and warehouse 148, Upper Thames-street,
E.C., new patent B B LAWN MOWER, patented and manufactured
by J. B. Brown and Co., in London.
